*SPEF "IEEE 1481-1998"
*DESIGN "sync_fifo"
*DATE "Thu Mar  5 23:45:25 2026"
*VENDOR "Cadence Design Systems, Inc."
*PROGRAM "Innovus"
*VERSION "21.15-s110_1"
*DESIGN_FLOW "COUPLING C" "PIN_CAP NONE" "NAME_SCOPE LOCAL"
*DIVIDER /
*DELIMITER :
*BUS_DELIMITER []
*T_UNIT 1 NS
*C_UNIT 1 PF
*R_UNIT 1 OHM
*L_UNIT 1 HENRY

// MMMC spef file for corner 'default_rc_corner'

*NAME_MAP

*1 CTS_3
*2 CTS_2
*3 clk
*4 rst
*5 wr_en
*6 rd_en
*7 wdata[7]
*8 wdata[6]
*9 wdata[5]
*10 wdata[4]
*11 wdata[3]
*12 wdata[2]
*13 wdata[1]
*14 wdata[0]
*15 rdata[7]
*16 rdata[6]
*17 rdata[5]
*18 rdata[4]
*19 rdata[3]
*20 rdata[2]
*21 rdata[1]
*22 rdata[0]
*23 full
*24 empty
*25 mem\[15\][7]
*26 mem\[15\][6]
*27 mem\[15\][5]
*28 mem\[15\][4]
*29 mem\[15\][3]
*30 mem\[15\][2]
*31 mem\[15\][1]
*32 mem\[15\][0]
*33 mem\[11\][7]
*34 mem\[11\][6]
*35 mem\[11\][5]
*36 mem\[11\][4]
*37 mem\[11\][3]
*38 mem\[11\][2]
*39 mem\[11\][1]
*40 mem\[11\][0]
*41 mem\[10\][7]
*42 mem\[10\][6]
*43 mem\[10\][5]
*44 mem\[10\][4]
*45 mem\[10\][3]
*46 mem\[10\][2]
*47 mem\[10\][1]
*48 mem\[10\][0]
*49 mem\[8\][7]
*50 mem\[8\][6]
*51 mem\[8\][5]
*52 mem\[8\][4]
*53 mem\[8\][3]
*54 mem\[8\][2]
*55 mem\[8\][1]
*56 mem\[8\][0]
*57 mem\[9\][7]
*58 mem\[9\][6]
*59 mem\[9\][5]
*60 mem\[9\][4]
*61 mem\[9\][3]
*62 mem\[9\][2]
*63 mem\[9\][1]
*64 mem\[9\][0]
*65 mem\[0\][7]
*66 mem\[0\][6]
*67 mem\[0\][5]
*68 mem\[0\][4]
*69 mem\[0\][3]
*70 mem\[0\][2]
*71 mem\[0\][1]
*72 mem\[0\][0]
*73 mem\[1\][7]
*74 mem\[1\][6]
*75 mem\[1\][5]
*76 mem\[1\][4]
*77 mem\[1\][3]
*78 mem\[1\][2]
*79 mem\[1\][1]
*80 mem\[1\][0]
*81 mem\[2\][7]
*82 mem\[2\][6]
*83 mem\[2\][5]
*84 mem\[2\][4]
*85 mem\[2\][3]
*86 mem\[2\][2]
*87 mem\[2\][1]
*88 mem\[2\][0]
*89 mem\[5\][7]
*90 mem\[5\][6]
*91 mem\[5\][5]
*92 mem\[5\][4]
*93 mem\[5\][3]
*94 mem\[5\][2]
*95 mem\[5\][1]
*96 mem\[5\][0]
*97 mem\[4\][7]
*98 mem\[4\][6]
*99 mem\[4\][5]
*100 mem\[4\][4]
*101 mem\[4\][3]
*102 mem\[4\][2]
*103 mem\[4\][1]
*104 mem\[4\][0]
*105 mem\[12\][7]
*106 mem\[12\][6]
*107 mem\[12\][5]
*108 mem\[12\][4]
*109 mem\[12\][3]
*110 mem\[12\][2]
*111 mem\[12\][1]
*112 mem\[12\][0]
*113 mem\[3\][7]
*114 mem\[3\][6]
*115 mem\[3\][5]
*116 mem\[3\][4]
*117 mem\[3\][3]
*118 mem\[3\][2]
*119 mem\[3\][1]
*120 mem\[3\][0]
*121 mem\[6\][7]
*122 mem\[6\][6]
*123 mem\[6\][5]
*124 mem\[6\][4]
*125 mem\[6\][3]
*126 mem\[6\][2]
*127 mem\[6\][1]
*128 mem\[6\][0]
*129 mem\[13\][7]
*130 mem\[13\][6]
*131 mem\[13\][5]
*132 mem\[13\][4]
*133 mem\[13\][3]
*134 mem\[13\][2]
*135 mem\[13\][1]
*136 mem\[13\][0]
*137 mem\[14\][7]
*138 mem\[14\][6]
*139 mem\[14\][5]
*140 mem\[14\][4]
*141 mem\[14\][3]
*142 mem\[14\][2]
*143 mem\[14\][1]
*144 mem\[14\][0]
*145 mem\[7\][7]
*146 mem\[7\][6]
*147 mem\[7\][5]
*148 mem\[7\][4]
*149 mem\[7\][3]
*150 mem\[7\][2]
*151 mem\[7\][1]
*152 mem\[7\][0]
*153 wr_ptr[4]
*154 wr_ptr[3]
*155 wr_ptr[2]
*156 wr_ptr[1]
*157 wr_ptr[0]
*158 rd_ptr[4]
*159 rd_ptr[3]
*160 rd_ptr[2]
*161 rd_ptr[1]
*162 rd_ptr[0]
*163 n_0
*164 n_1
*165 n_2
*166 n_3
*167 n_7
*168 n_8
*169 n_9
*170 n_10
*171 n_11
*172 n_12
*173 n_13
*174 n_14
*175 n_15
*176 n_16
*177 n_17
*178 n_18
*179 n_19
*180 n_20
*181 n_21
*182 n_22
*183 n_23
*184 n_25
*185 n_26
*186 n_28
*187 n_29
*188 n_30
*189 n_31
*190 n_32
*191 n_33
*192 n_37
*193 n_38
*194 n_39
*195 n_40
*196 n_41
*197 n_42
*198 n_43
*199 n_44
*200 n_45
*201 n_46
*202 n_47
*203 n_48
*204 n_49
*205 n_50
*206 n_51
*207 n_52
*208 n_53
*209 n_54
*210 n_55
*211 n_56
*212 n_57
*213 n_58
*214 n_59
*215 n_60
*216 n_61
*217 n_62
*218 n_63
*219 n_64
*220 n_65
*221 n_66
*222 n_67
*223 n_68
*224 n_69
*225 n_70
*226 n_71
*227 n_72
*228 n_73
*229 n_74
*230 n_75
*231 n_76
*232 n_77
*233 n_78
*234 n_79
*235 n_80
*236 n_81
*237 n_82
*238 n_83
*239 n_84
*240 n_85
*241 n_86
*242 n_87
*243 n_88
*244 n_89
*245 n_90
*246 n_91
*247 n_92
*248 n_93
*249 n_94
*250 n_95
*251 n_96
*252 n_97
*253 n_98
*254 n_99
*255 n_100
*256 n_102
*257 n_103
*258 n_104
*259 n_105
*260 n_106
*261 n_107
*262 n_108
*263 n_109
*264 n_110
*265 n_111
*266 n_112
*267 n_113
*268 n_114
*269 n_115
*270 n_116
*271 n_117
*272 n_118
*273 n_119
*274 n_121
*275 n_122
*276 n_123
*277 n_125
*278 n_126
*279 n_127
*280 n_128
*281 n_129
*282 n_130
*283 n_131
*284 n_132
*285 n_133
*286 n_135
*287 n_136
*288 n_138
*289 n_139
*290 n_140
*291 n_141
*292 n_142
*293 n_143
*294 n_144
*295 n_145
*296 n_146
*297 n_147
*298 n_148
*299 n_149
*300 n_150
*301 n_151
*302 n_152
*303 n_153
*304 n_154
*305 n_155
*306 n_156
*307 n_157
*308 n_158
*309 n_159
*310 n_160
*311 n_161
*312 n_162
*313 n_163
*314 n_164
*315 n_165
*316 n_166
*317 n_167
*318 n_168
*319 n_169
*320 n_170
*321 n_171
*322 n_172
*323 n_173
*324 n_174
*325 n_175
*326 n_176
*327 n_177
*328 n_178
*329 n_179
*330 n_184
*331 n_185
*332 n_186
*333 n_187
*334 n_188
*335 CTS_ccl_a_buf_00002
*336 CTS_ccl_a_buf_00001
*337 rdata_reg\[0\]
*338 rdata_reg\[6\]
*339 rdata_reg\[7\]
*340 rdata_reg\[1\]
*341 rdata_reg\[2\]
*342 rdata_reg\[3\]
*343 rdata_reg\[4\]
*344 rdata_reg\[5\]
*345 g4709__2398
*346 g4708__5107
*347 g4704__6260
*348 g4705__4319
*349 g4702__8428
*350 g4703__5526
*351 g4706__6783
*352 g4707__3680
*353 g4712__1617
*354 g4711__2802
*355 g4710__1705
*356 g4713__5122
*357 g4716__8246
*358 g4715__7098
*359 g4714__6131
*360 g4717__1881
*361 mem_reg\[11\]\[3\]
*362 mem_reg\[10\]\[1\]
*363 mem_reg\[8\]\[1\]
*364 mem_reg\[8\]\[0\]
*365 mem_reg\[8\]\[2\]
*366 mem_reg\[8\]\[3\]
*367 mem_reg\[8\]\[5\]
*368 mem_reg\[8\]\[6\]
*369 mem_reg\[8\]\[4\]
*370 mem_reg\[8\]\[7\]
*371 mem_reg\[11\]\[7\]
*372 mem_reg\[10\]\[7\]
*373 mem_reg\[11\]\[0\]
*374 mem_reg\[11\]\[1\]
*375 mem_reg\[11\]\[2\]
*376 mem_reg\[10\]\[5\]
*377 mem_reg\[10\]\[6\]
*378 mem_reg\[11\]\[5\]
*379 mem_reg\[11\]\[6\]
*380 mem_reg\[9\]\[0\]
*381 mem_reg\[9\]\[1\]
*382 mem_reg\[9\]\[2\]
*383 mem_reg\[9\]\[3\]
*384 mem_reg\[9\]\[4\]
*385 mem_reg\[9\]\[5\]
*386 mem_reg\[9\]\[6\]
*387 mem_reg\[9\]\[7\]
*388 mem_reg\[10\]\[0\]
*389 mem_reg\[10\]\[2\]
*390 mem_reg\[10\]\[3\]
*391 mem_reg\[10\]\[4\]
*392 mem_reg\[11\]\[4\]
*393 g4785__5115
*394 g4778__7482
*395 g4779__4733
*396 g4780__6161
*397 g4781__9315
*398 g4782__9945
*399 g4783__2883
*400 g4784__2346
*401 g4856__1666
*402 mem_reg\[2\]\[6\]
*403 mem_reg\[1\]\[3\]
*404 mem_reg\[5\]\[7\]
*405 mem_reg\[1\]\[7\]
*406 mem_reg\[1\]\[2\]
*407 mem_reg\[4\]\[3\]
*408 mem_reg\[0\]\[2\]
*409 mem_reg\[0\]\[0\]
*410 mem_reg\[0\]\[3\]
*411 mem_reg\[0\]\[1\]
*412 mem_reg\[0\]\[5\]
*413 mem_reg\[0\]\[4\]
*414 mem_reg\[0\]\[6\]
*415 mem_reg\[12\]\[0\]
*416 mem_reg\[12\]\[1\]
*417 mem_reg\[12\]\[2\]
*418 mem_reg\[12\]\[3\]
*419 mem_reg\[12\]\[4\]
*420 mem_reg\[12\]\[5\]
*421 mem_reg\[12\]\[6\]
*422 mem_reg\[4\]\[6\]
*423 mem_reg\[4\]\[7\]
*424 mem_reg\[4\]\[5\]
*425 mem_reg\[12\]\[7\]
*426 mem_reg\[0\]\[7\]
*427 mem_reg\[3\]\[1\]
*428 mem_reg\[4\]\[1\]
*429 mem_reg\[4\]\[0\]
*430 mem_reg\[4\]\[2\]
*431 mem_reg\[4\]\[4\]
*432 mem_reg\[1\]\[5\]
*433 mem_reg\[1\]\[6\]
*434 mem_reg\[1\]\[0\]
*435 mem_reg\[1\]\[1\]
*436 mem_reg\[3\]\[5\]
*437 mem_reg\[6\]\[3\]
*438 mem_reg\[2\]\[0\]
*439 mem_reg\[2\]\[1\]
*440 mem_reg\[2\]\[2\]
*441 mem_reg\[2\]\[3\]
*442 mem_reg\[2\]\[4\]
*443 mem_reg\[2\]\[5\]
*444 mem_reg\[6\]\[6\]
*445 mem_reg\[1\]\[4\]
*446 mem_reg\[2\]\[7\]
*447 mem_reg\[5\]\[0\]
*448 mem_reg\[5\]\[1\]
*449 mem_reg\[13\]\[2\]
*450 mem_reg\[13\]\[3\]
*451 mem_reg\[6\]\[0\]
*452 mem_reg\[13\]\[5\]
*453 mem_reg\[6\]\[1\]
*454 mem_reg\[13\]\[6\]
*455 mem_reg\[13\]\[7\]
*456 mem_reg\[14\]\[0\]
*457 mem_reg\[14\]\[1\]
*458 mem_reg\[14\]\[3\]
*459 mem_reg\[6\]\[4\]
*460 mem_reg\[14\]\[4\]
*461 mem_reg\[6\]\[5\]
*462 mem_reg\[14\]\[5\]
*463 mem_reg\[14\]\[6\]
*464 mem_reg\[14\]\[7\]
*465 mem_reg\[6\]\[7\]
*466 mem_reg\[5\]\[2\]
*467 mem_reg\[3\]\[2\]
*468 mem_reg\[3\]\[3\]
*469 mem_reg\[3\]\[4\]
*470 mem_reg\[6\]\[2\]
*471 mem_reg\[3\]\[6\]
*472 mem_reg\[3\]\[7\]
*473 mem_reg\[14\]\[2\]
*474 mem_reg\[13\]\[4\]
*475 mem_reg\[3\]\[0\]
*476 mem_reg\[5\]\[3\]
*477 mem_reg\[5\]\[4\]
*478 mem_reg\[5\]\[5\]
*479 mem_reg\[5\]\[6\]
*480 mem_reg\[13\]\[0\]
*481 mem_reg\[13\]\[1\]
*482 g4857__7410
*483 g4851__6417
*484 g4852__5477
*485 g4853__2398
*486 g4854__5107
*487 g4855__6260
*488 mem_reg\[7\]\[5\]
*489 g4858__4319
*490 mem_reg\[7\]\[0\]
*491 mem_reg\[7\]\[1\]
*492 mem_reg\[7\]\[2\]
*493 mem_reg\[7\]\[3\]
*494 mem_reg\[7\]\[6\]
*495 mem_reg\[7\]\[7\]
*496 mem_reg\[7\]\[4\]
*497 g4874__8428
*498 g4918__5526
*499 g4864__6783
*500 g4895__3680
*501 g4865__1617
*502 g4872__2802
*503 g4873__1705
*504 g4893__5122
*505 g4875__8246
*506 g4882__7098
*507 g4886__6131
*508 g4888__1881
*509 mem_reg\[15\]\[0\]
*510 mem_reg\[15\]\[2\]
*511 g4942__5115
*512 g4900__7482
*513 g4902__4733
*514 g4913__6161
*515 g4909__9315
*516 g4914__9945
*517 g4898__2883
*518 g4919__2346
*519 mem_reg\[15\]\[4\]
*520 mem_reg\[15\]\[5\]
*521 mem_reg\[15\]\[7\]
*522 mem_reg\[15\]\[3\]
*523 mem_reg\[15\]\[1\]
*524 mem_reg\[15\]\[6\]
*525 g4929__1666
*526 g4931__7410
*527 g4934__6417
*528 g4884__5477
*529 g4883__2398
*530 g4881__5107
*531 g4880__6260
*532 g4879__4319
*533 g4878__8428
*534 g4863__5526
*535 g4866__6783
*536 g4910__3680
*537 g4867__1617
*538 g4868__2802
*539 g4869__1705
*540 g4870__5122
*541 g4871__8246
*542 g4915__7098
*543 g4876__6131
*544 g4877__1881
*545 g4941__5115
*546 g4940__7482
*547 g4939__4733
*548 g4938__6161
*549 g4936__9315
*550 g4937__9945
*551 g4885__2883
*552 g4887__2346
*553 g4889__1666
*554 g4892__7410
*555 g4894__6417
*556 g4896__5477
*557 g4897__2398
*558 g4899__5107
*559 g4901__6260
*560 g4903__4319
*561 g4904__8428
*562 g4905__5526
*563 g4906__6783
*564 g4907__3680
*565 g4908__1617
*566 g4911__2802
*567 g4912__1705
*568 g4916__5122
*569 g4917__8246
*570 g4920__7098
*571 g4935__6131
*572 g4933__1881
*573 g4930__5115
*574 g4928__7482
*575 g4957__4733
*576 g4964__6161
*577 g4955__2346
*578 g4954__1666
*579 g4956__7410
*580 g4950__6417
*581 g4944__5477
*582 g4945__2398
*583 g4949__5107
*584 g4943__6260
*585 g4951__4319
*586 g4952__8428
*587 g4953__5526
*588 g4960__6783
*589 g4958__1617
*590 g4963__2802
*591 g4962__1705
*592 g4966
*593 rd_ptr_reg\[4\]
*594 wr_ptr_reg\[4\]
*595 wr_ptr_reg\[1\]
*596 g4968__8246
*597 g4969__7098
*598 g4974__6131
*599 g4975__1881
*600 g4970__5115
*601 g4976
*602 g4978
*603 g4973__7482
*604 g4977__4733
*605 g4932__6161
*606 g4979__9315
*607 g4983__9945
*608 g4980__2883
*609 g4967__1666
*610 g4985__7410
*611 g4987__6417
*612 g4984__5477
*613 g4986__2398
*614 g4988__5107
*615 g4990__6260
*616 g4982
*617 g4989__4319
*618 g4994__8428
*619 g4995__5526
*620 g4996__6783
*621 g4998
*622 g5003
*623 g4993__3680
*624 g5005
*625 g4991__1617
*626 g5007__2802
*627 g5002__1705
*628 g5008__5122
*629 g4997__8246
*630 g5009__7098
*631 g5010__6131
*632 g4999__1881
*633 g5000__5115
*634 g5001__7482
*635 g5016
*636 rd_ptr_reg\[0\]
*637 wr_ptr_reg\[0\]
*638 rd_ptr_reg\[3\]
*639 wr_ptr_reg\[3\]
*640 wr_ptr_reg\[2\]
*641 rd_ptr_reg\[2\]
*642 rd_ptr_reg\[1\]
*643 g2
*644 g5179
*645 g5180
*646 g5181
*647 g5182
*648 g5183


*PORTS

*3 I *C 0 0
*4 I *C 0 0
*5 I *C 0 0
*6 I *C 0 0
*7 I *C 0 0
*8 I *C 0 0
*9 I *C 0 0
*10 I *C 0 0
*11 I *C 0 0
*12 I *C 0 0
*13 I *C 0 0
*14 I *C 0 0
*15 O *C 0 0
*16 O *C 0 0
*17 O *C 0 0
*18 O *C 0 0
*19 O *C 0 0
*20 O *C 0 0
*21 O *C 0 0
*22 O *C 0 0
*23 O *C 0 0
*24 O *C 0 0


*D_NET *1 0.0438292

*CONN
*I *640:CK I *C 23.9 33.155 *L 0.000618 *D SDFFRXL
*I *335:Y O *C 26.1 24.795 *L 0 *D BUFX20
*I *639:CK I *C 22.7 36.575 *L 0.000618 *D SDFFRXL
*I *595:CK I *C 21.7 41.515 *L 0.000585 *D SDFFRHQX1
*I *594:CK I *C 21.7 39.805 *L 0.000585 *D SDFFRHQX1
*I *524:CK I *C 42.7 41.325 *L 0.000543 *D SDFFQX1
*I *523:CK I *C 56.3 39.995 *L 0.000543 *D SDFFQX1
*I *522:CK I *C 56.9 41.325 *L 0.000543 *D SDFFQX1
*I *521:CK I *C 35.3 41.325 *L 0.000543 *D SDFFQX1
*I *510:CK I *C 35.5 37.905 *L 0.000543 *D SDFFQX1
*I *496:CK I *C 45.9 24.225 *L 0.000543 *D SDFFQX1
*I *495:CK I *C 25.9 31.065 *L 0.000543 *D SDFFQX1
*I *494:CK I *C 43.3 33.155 *L 0.000543 *D SDFFQX1
*I *493:CK I *C 51.9 22.895 *L 0.000543 *D SDFFQX1
*I *492:CK I *C 25.5 22.895 *L 0.000543 *D SDFFQX1
*I *491:CK I *C 49.7 39.995 *L 0.000543 *D SDFFQX1
*I *490:CK I *C 51.9 31.065 *L 0.000543 *D SDFFQX1
*I *488:CK I *C 43.1 22.895 *L 0.000543 *D SDFFQX1
*I *481:CK I *C 47.9 41.325 *L 0.000543 *D SDFFQX1
*I *480:CK I *C 46.1 34.485 *L 0.000543 *D SDFFQX1
*I *474:CK I *C 47.3 27.645 *L 0.000543 *D SDFFQX1
*I *473:CK I *C 35.1 26.315 *L 0.000543 *D SDFFQX1
*I *464:CK I *C 34.5 33.155 *L 0.000543 *D SDFFQX1
*I *463:CK I *C 38.9 39.995 *L 0.000543 *D SDFFQX1
*I *462:CK I *C 42.9 29.735 *L 0.000543 *D SDFFQX1
*I *460:CK I *C 47.7 26.315 *L 0.000543 *D SDFFQX1
*I *458:CK I *C 47.5 31.065 *L 0.000543 *D SDFFQX1
*I *457:CK I *C 47.5 37.905 *L 0.000543 *D SDFFQX1
*I *456:CK I *C 47.9 33.155 *L 0.000543 *D SDFFQX1
*I *455:CK I *C 34.5 34.485 *L 0.000543 *D SDFFQX1
*I *454:CK I *C 38.5 36.575 *L 0.000543 *D SDFFQX1
*I *452:CK I *C 38.5 31.065 *L 0.000543 *D SDFFQX1
*I *450:CK I *C 47.5 29.735 *L 0.000543 *D SDFFQX1
*I *449:CK I *C 34.7 29.735 *L 0.000543 *D SDFFQX1
*I *425:CK I *C 29.9 27.645 *L 0.000543 *D SDFFQX1
*I *421:CK I *C 43.9 39.995 *L 0.000543 *D SDFFQX1
*I *420:CK I *C 42.5 27.645 *L 0.000543 *D SDFFQX1
*I *419:CK I *C 61.3 22.895 *L 0.000543 *D SDFFQX1
*I *418:CK I *C 61.5 27.645 *L 0.000543 *D SDFFQX1
*I *417:CK I *C 29.9 22.895 *L 0.000543 *D SDFFQX1
*I *416:CK I *C 61.3 37.905 *L 0.000543 *D SDFFQX1
*I *415:CK I *C 61.1 39.995 *L 0.000543 *D SDFFQX1
*I *408:CK I *C 34.3 43.415 *L 0.000543 *D SDFFQX1
*I *392:CK I *C 61.1 24.225 *L 0.000543 *D SDFFQX1
*I *391:CK I *C 56.3 22.895 *L 0.000543 *D SDFFQX1
*I *390:CK I *C 55.9 29.735 *L 0.000543 *D SDFFQX1
*I *389:CK I *C 34.9 24.225 *L 0.000543 *D SDFFQX1
*I *388:CK I *C 61.1 31.065 *L 0.000543 *D SDFFQX1
*I *387:CK I *C 29.7 29.735 *L 0.000543 *D SDFFQX1
*I *386:CK I *C 38.9 34.485 *L 0.000543 *D SDFFQX1
*I *385:CK I *C 38.1 20.805 *L 0.000543 *D SDFFQX1
*I *384:CK I *C 56.5 20.805 *L 0.000543 *D SDFFQX1
*I *383:CK I *C 56.1 26.315 *L 0.000543 *D SDFFQX1
*I *382:CK I *C 34.3 22.895 *L 0.000543 *D SDFFQX1
*I *381:CK I *C 56.5 37.905 *L 0.000543 *D SDFFQX1
*I *380:CK I *C 56.3 31.065 *L 0.000543 *D SDFFQX1
*I *379:CK I *C 43.7 36.575 *L 0.000543 *D SDFFQX1
*I *378:CK I *C 42.5 26.315 *L 0.000543 *D SDFFQX1
*I *377:CK I *C 38.9 33.155 *L 0.000543 *D SDFFQX1
*I *376:CK I *C 38.7 22.895 *L 0.000543 *D SDFFQX1
*I *375:CK I *C 26.7 26.315 *L 0.000543 *D SDFFQX1
*I *374:CK I *C 61.1 33.155 *L 0.000543 *D SDFFQX1
*I *373:CK I *C 61.5 34.485 *L 0.000543 *D SDFFQX1
*I *372:CK I *C 30.1 34.485 *L 0.000543 *D SDFFQX1
*I *371:CK I *C 25.5 27.645 *L 0.000543 *D SDFFQX1
*I *370:CK I *C 29.7 33.155 *L 0.000543 *D SDFFQX1
*I *369:CK I *C 47.5 22.895 *L 0.000543 *D SDFFQX1
*I *368:CK I *C 43.1 31.065 *L 0.000543 *D SDFFQX1
*I *367:CK I *C 43.1 20.805 *L 0.000543 *D SDFFQX1
*I *366:CK I *C 51.5 20.805 *L 0.000543 *D SDFFQX1
*I *365:CK I *C 29.3 20.805 *L 0.000543 *D SDFFQX1
*I *364:CK I *C 51.9 34.485 *L 0.000543 *D SDFFQX1
*I *363:CK I *C 51.7 36.575 *L 0.000543 *D SDFFQX1
*I *362:CK I *C 54.7 33.155 *L 0.000543 *D SDFFQX1
*I *361:CK I *C 61.1 29.735 *L 0.000543 *D SDFFQX1

*CAP
1 *640:CK 5.74866e-05
2 *335:Y 5.74866e-05
3 *639:CK 5.74866e-05
4 *595:CK 5.74866e-05
5 *594:CK 5.74866e-05
6 *524:CK 5.74866e-05
7 *523:CK 5.74866e-05
8 *522:CK 5.74866e-05
9 *521:CK 5.74866e-05
10 *510:CK 5.74866e-05
11 *496:CK 5.74866e-05
12 *495:CK 5.74866e-05
13 *494:CK 5.74866e-05
14 *493:CK 5.74866e-05
15 *492:CK 5.74866e-05
16 *491:CK 5.74866e-05
17 *490:CK 5.74866e-05
18 *488:CK 5.74866e-05
19 *481:CK 5.74866e-05
20 *480:CK 5.74866e-05
21 *474:CK 5.74866e-05
22 *473:CK 5.74866e-05
23 *464:CK 5.74866e-05
24 *463:CK 5.74866e-05
25 *462:CK 5.74866e-05
26 *460:CK 5.74866e-05
27 *458:CK 2.97789e-05
28 *457:CK 5.74866e-05
29 *456:CK 5.74866e-05
30 *455:CK 5.74866e-05
31 *454:CK 5.74866e-05
32 *452:CK 5.74866e-05
33 *450:CK 5.74866e-05
34 *449:CK 5.74866e-05
35 *425:CK 5.74866e-05
36 *421:CK 5.74866e-05
37 *420:CK 5.74866e-05
38 *419:CK 5.74866e-05
39 *418:CK 5.74866e-05
40 *417:CK 5.74866e-05
41 *416:CK 5.74866e-05
42 *415:CK 5.74866e-05
43 *408:CK 5.74866e-05
44 *392:CK 5.74866e-05
45 *391:CK 5.74866e-05
46 *390:CK 5.74866e-05
47 *389:CK 5.74866e-05
48 *388:CK 0.000148942
49 *387:CK 5.74866e-05
50 *386:CK 5.74866e-05
51 *385:CK 5.74866e-05
52 *384:CK 5.74866e-05
53 *383:CK 5.74866e-05
54 *382:CK 5.74866e-05
55 *381:CK 5.74866e-05
56 *380:CK 5.74866e-05
57 *379:CK 5.74866e-05
58 *378:CK 5.74866e-05
59 *377:CK 5.74866e-05
60 *376:CK 5.74866e-05
61 *375:CK 5.74866e-05
62 *374:CK 5.74866e-05
63 *373:CK 5.74866e-05
64 *372:CK 5.74866e-05
65 *371:CK 5.74866e-05
66 *370:CK 5.74866e-05
67 *369:CK 5.74866e-05
68 *368:CK 5.74866e-05
69 *367:CK 5.74866e-05
70 *366:CK 5.74866e-05
71 *365:CK 5.74866e-05
72 *364:CK 5.74866e-05
73 *363:CK 5.74866e-05
74 *362:CK 0.000211067
75 *361:CK 5.74866e-05
76 *1:75 6.92455e-05
77 *1:76 9.76691e-05
78 *1:77 0.000115374
79 *1:78 8.60534e-05
80 *1:79 0.00019614
81 *1:80 0.000191597
82 *1:81 8.14052e-05
83 *1:82 4.57851e-05
84 *1:83 0.000139293
85 *1:84 0.000168623
86 *1:85 9.94634e-05
87 *1:86 7.01331e-05
88 *1:87 0.000202983
89 *1:88 0.000274643
90 *1:89 4.51742e-05
91 *1:90 6.93791e-05
92 *1:91 5.03664e-05
93 *1:92 0.000146212
94 *1:93 0.000186958
95 *1:94 0.000413383
96 *1:95 0.000406301
97 *1:96 0.000226472
98 *1:97 0.000375052
99 *1:98 0.000319837
100 *1:99 0.000164338
101 *1:100 6.32229e-05
102 *1:101 6.32229e-05
103 *1:102 0.000213635
104 *1:103 0.000439086
105 *1:104 0.0006255
106 *1:105 0.000196245
107 *1:106 5.11682e-05
108 *1:107 0.000622026
109 *1:108 0.000393769
110 *1:109 0.000176822
111 *1:110 0.000387097
112 *1:111 0.000333342
113 *1:112 0.00029777
114 *1:113 0.000307916
115 *1:114 2.27064e-05
116 *1:115 0.000203861
117 *1:116 0.000233192
118 *1:117 0.000157647
119 *1:118 0.000156101
120 *1:119 0.000188791
121 *1:120 0.000156473
122 *1:121 0.000196092
123 *1:122 0.000135761
124 *1:123 5.79257e-05
125 *1:124 0.000357881
126 *1:125 0.000182968
127 *1:126 0.000186738
128 *1:127 0.000134263
129 *1:128 0.000137794
130 *1:129 5.97391e-05
131 *1:130 5.97391e-05
132 *1:131 0.000123334
133 *1:132 0.000123334
134 *1:133 5.90806e-05
135 *1:134 2.97503e-05
136 *1:135 0.000172937
137 *1:136 0.000123563
138 *1:137 5.92905e-05
139 *1:138 0.000191807
140 *1:139 5.72289e-05
141 *1:140 0.000161073
142 *1:141 0.000207994
143 *1:142 8.88022e-05
144 *1:143 0.000147148
145 *1:144 1.92417e-05
146 *1:145 1.92417e-05
147 *1:146 0.00014313
148 *1:147 0.000149792
149 *1:148 1.73615e-05
150 *1:149 9.23814e-05
151 *1:150 0.000135198
152 *1:151 0.000239424
153 *1:152 0.000239424
154 *1:153 4.16905e-05
155 *1:154 4.16905e-05
156 *1:155 8.03935e-05
157 *1:156 8.03935e-05
158 *1:157 0.00025209
159 *1:158 0.000225203
160 *1:159 4.00297e-05
161 *1:160 4.00297e-05
162 *1:161 3.94666e-05
163 *1:162 3.70136e-05
164 *1:163 6.80429e-05
165 *1:164 9.29159e-05
166 *1:165 7.32255e-05
167 *1:166 2.30882e-05
168 *1:167 2.13893e-05
169 *1:168 0.00012154
170 *1:169 6.06268e-05
171 *1:170 3.12965e-05
172 *1:171 5.50623e-05
173 *1:172 2.5732e-05
174 *1:173 6.33183e-05
175 *1:174 6.33183e-05
176 *1:175 3.51334e-05
177 *1:176 3.51334e-05
178 *1:177 0.000345254
179 *1:178 0.00015884
180 *1:179 0.000113742
181 *1:180 0.000143072
182 *1:181 4.19386e-05
183 *1:182 0.000130264
184 *1:183 0.000254705
185 *1:184 5.53868e-05
186 *1:185 0.000123115
187 *1:186 0.000269804
188 *1:187 0.000360248
189 *1:188 0.000228219
190 *1:189 0.00015317
191 *1:190 0.000319913
192 *1:191 0.000279817
193 *1:192 0.000179628
194 *1:193 0.000173729
195 *1:194 0.000193763
196 *1:195 0.0001668
197 *1:196 0.000257607
198 *1:197 0.000238374
199 *1:198 0.000186309
200 *1:199 0.000358349
201 *1:200 0.000310044
202 *1:201 0.000160023
203 *1:202 0.00012027
204 *1:203 6.95509e-05
205 *1:204 7.57262e-05
206 *1:205 7.57262e-05
207 *1:206 5.2533e-05
208 *1:207 5.2533e-05
209 *1:208 0.000129099
210 *1:209 0.000152245
211 *1:210 0.000251345
212 *1:211 0.000155671
213 *1:212 0.000198936
214 *1:213 0.000226663
215 *1:214 4.03065e-05
216 *1:215 9.53497e-05
217 *1:216 0.000210686
218 *1:217 0.000237009
219 *1:218 0.000171639
220 *1:219 0.00018629
221 *1:220 0.000266063
222 *1:221 0.00018022
223 *1:222 3.24991e-05
224 *1:223 0.00017413
225 *1:224 0.00017413
226 *1:225 0.000122046
227 *1:226 9.61992e-05
228 *1:227 6.68689e-05
229 *1:228 4.8448e-05
230 *1:229 4.8448e-05
231 *1:230 2.3804e-05
232 *1:231 2.3804e-05
233 *1:232 1.98717e-05
234 *1:233 2.65338e-05
235 *1:234 5.13591e-05
236 *1:235 2.20287e-05
237 *1:236 5.10823e-05
238 *1:237 5.56732e-05
239 *1:238 3.67273e-05
240 *1:239 3.67273e-05
241 *1:240 0.000223304
242 *1:241 0.00031873
243 *1:242 0.00027263
244 *1:298 5.65704e-05
245 *1:299 6.66398e-05
246 *1:300 5.65704e-05
247 *1:301 6.66398e-05
248 *1:302 5.65704e-05
249 *1:303 5.65704e-05
250 *1:304 6.66398e-05
251 *1:305 6.66398e-05
252 *1:306 5.65704e-05
253 *1:307 5.65704e-05
254 *1:308 4.56705e-05
255 *1:309 5.65704e-05
256 *1:310 4.52601e-05
257 *1:311 5.65704e-05
258 *1:312 3.51238e-05
259 *1:313 0.00017183
260 *1:314 0.000143149
261 *1:315 5.13781e-05
262 *1:316 3.56583e-05
263 *1:317 3.51238e-05
264 *1:318 5.65704e-05
265 *1:319 3.56583e-05
266 *1:320 5.65704e-05
267 *1:321 5.65704e-05
268 *1:322 0.00017183
269 *1:323 5.99777e-05
270 *1:324 5.65704e-05
271 *1:325 5.65704e-05
272 *1:326 5.65704e-05
273 *1:327 5.65704e-05
274 *1:328 5.65704e-05
275 *1:329 5.65704e-05
276 *1:330 5.65704e-05
277 *1:331 0.000143149
278 *1:332 5.65704e-05
279 *1:333 5.65704e-05
280 *1:334 5.65704e-05
281 *1:335 5.65704e-05
282 *1:336 5.65704e-05
283 *1:337 5.65704e-05
284 *1:338 5.65704e-05
285 *1:339 5.65704e-05
286 *1:340 5.65704e-05
287 *1:341 5.99777e-05
288 *1:342 5.65704e-05
289 *1:343 5.65704e-05
290 *1:344 5.65704e-05
291 *1:345 5.65704e-05
292 *1:346 5.65704e-05
293 *1:347 5.65704e-05
294 *1:348 5.65704e-05
295 *1:349 0.000113083
296 *1:350 5.65704e-05
297 *1:351 5.65704e-05
298 *1:352 5.65704e-05
299 *1:353 5.65704e-05
300 *1:354 5.65704e-05
301 *1:355 6.01018e-05
302 *1:356 5.65704e-05
303 *1:357 5.65704e-05
304 *1:358 0.000151004
305 *1:359 5.65704e-05
306 *1:360 5.65704e-05
307 *1:361 5.65704e-05
308 *1:362 5.65704e-05
309 *1:363 5.65704e-05
310 *1:364 5.65704e-05
311 *1:365 5.65704e-05
312 *1:366 5.65704e-05
313 *1:367 5.65704e-05
314 *1:368 5.65704e-05
315 *1:369 0.000191873
316 *1:226 *296:47 2.113e-05
317 *1:227 *296:48 2.113e-05
318 *1:169 *296:31 4.69e-06
319 *1:170 *296:32 4.69e-06
320 *1:155 *296:31 4.326e-05
321 *1:156 *296:32 4.326e-05
322 *1:228 *296:68 3.09e-05
323 *1:229 *296:67 3.09e-05
324 *1:230 *296:54 4.76e-06
325 *1:231 *296:52 4.76e-06
326 *1:232 *296:29 9.39e-06
327 *1:146 *296:30 9.39e-06
328 *1:146 *296:30 0.00015968
329 *1:147 *296:56 0.00015968
330 *1:147 *296:30 1.879e-05
331 *1:233 *296:56 1.879e-05
332 *1:234 *296:17 3.757e-05
333 *1:235 *296:18 3.757e-05
334 *1:144 *296:29 2.12e-06
335 *1:145 *296:30 2.12e-06
336 *1:236 *296:15 2.677e-05
337 *1:164 *296:16 2.677e-05
338 *1:164 *296:15 1.785e-05
339 *1:87 *296:16 1.78500065e-05
340 *1:209 *274:48 2.11e-06
341 *1:210 *274:49 2.11e-06
342 *1:210 *274:55 4.36e-06
343 *1:211 *274:54 4.36e-06
344 *1:195 *274:55 8.012e-05
345 *1:196 *274:54 8.012e-05
346 *1:212 *274:42 0.0001409
347 *1:213 *274:43 0.0001409
348 *1:213 *274:43 2.818e-05
349 *1:214 *274:44 2.818e-05
350 *1:109 *274:33 0.00011743
351 *1:110 *274:34 0.00011743
352 *1:109 *274:57 1.879e-05
353 *1:110 *274:56 1.879e-05
354 *1:109 *274:37 2.818e-05
355 *1:110 *274:38 2.818e-05
356 *1:109 *274:38 1.879e-05
357 *1:110 *274:39 1.879e-05
358 *1:110 *274:53 1.879e-05
359 *1:111 *274:52 1.879e-05
360 *1:94 *274:24 6.677e-05
361 *1:95 *274:25 6.677e-05
362 *1:80 *274:19 3.569e-05
363 *1:168 *274:20 3.569e-05
364 *1:80 *274:20 2.677e-05
365 *1:168 *274:21 2.677e-05
366 *1:168 *274:17 8.9e-06
367 *1:81 *274:18 8.90001156e-06
368 *1:202 *309:56 4.462e-05
369 *1:203 *309:54 4.462e-05
370 *1:203 *309:56 6.246e-05
371 *1:204 *309:54 6.246e-05
372 *1:204 *309:56 9.816e-05
373 *1:205 *309:54 9.816e-05
374 *1:205 *309:56 6.246e-05
375 *1:195 *309:54 6.246e-05
376 *1:195 *309:56 4.462e-05
377 *1:196 *309:54 4.462e-05
378 *1:151 *309:55 6.36e-06
379 *1:152 *309:51 6.36e-06
380 *1:206 *309:46 1.637e-05
381 *1:207 *309:47 1.637e-05
382 *1:104 *309:27 1.917e-05
383 *1:177 *309:28 1.917e-05
384 *1:98 *309:35 1.82e-06
385 *1:208 *309:36 1.82e-06
386 *1:81 *309:20 6.246e-05
387 *1:82 *309:21 6.246e-05
388 *1:82 *309:20 8.92e-06
389 *1:148 *309:21 8.91999811e-06
390 *1:202 *245:39 6.458e-05
391 *1:203 *245:40 6.458e-05
392 *1:203 *245:39 4.11e-05
393 *1:204 *245:40 4.11e-05
394 *1:204 *245:39 6.458e-05
395 *1:205 *245:40 6.458e-05
396 *1:205 *245:39 4.11e-05
397 *1:195 *245:40 4.11e-05
398 *1:195 *245:39 8.807e-05
399 *1:196 *245:40 8.807e-05
400 *1:238 *245:33 1.879e-05
401 *1:239 *245:34 1.879e-05
402 *1:153 *245:31 9.53e-06
403 *1:154 *245:32 9.53e-06
404 *1:206 *245:60 1.091e-05
405 *1:207 *245:23 1.091e-05
406 *1:234 *245:60 9.37e-06
407 *1:235 *245:23 9.37e-06
408 *1:98 *245:13 3.569e-05
409 *1:208 *245:14 3.569e-05
410 *1:102 *245:59 8.26e-06
411 *1:97 *245:58 8.25998514e-06
412 *1:161 *8:46 3.757e-05
413 *1:157 *8:47 3.757e-05
414 *1:157 *8:46 2.818e-05
415 *1:158 *8:47 2.818e-05
416 *1:162 *8:60 4.45e-06
417 *1:163 *8:59 4.45e-06
418 *1:164 *8:56 2.113e-05
419 *1:87 *8:55 2.113e-05
420 *1:87 *8:34 6.04e-06
421 *1:88 *8:35 6.04e-06
422 *1:164 *8:21 3.64e-06
423 *1:87 *8:24 3.64e-06
424 *1:165 *8:21 8.83e-06
425 *1:79 *8:24 8.83e-06
426 *1:166 *8:21 1.16e-06
427 *1:167 *8:24 1.16e-06
428 *1:79 *8:37 0.00010708
429 *1:80 *8:38 0.00010708
430 *1:80 *8:37 8.92e-06
431 *1:168 *8:38 8.92e-06
432 *1:80 *8:38 8.031e-05
433 *1:168 *8:39 8.031e-05
434 *1:168 *8:39 8.92e-06
435 *1:81 *8:40 8.92e-06
436 *1:79 *8:48 5.87e-06
437 *1:80 *8:17 5.87000669e-06
438 *1:140 *331:55 0.00010332
439 *1:141 *331:49 0.00010332
440 *1:141 *331:33 5.562e-05
441 *1:142 *331:34 5.562e-05
442 *1:143 *331:35 0.00033543
443 *1:138 *331:36 0.00033543
444 *1:144 *331:52 3.79e-06
445 *1:145 *331:48 3.79e-06
446 *1:146 *331:47 1.158e-05
447 *1:147 *331:41 1.158e-05
448 *1:107 *331:58 4.326e-05
449 *1:108 *331:52 4.326e-05
450 *1:107 *331:52 0.00016069
451 *1:108 *331:48 0.00016069
452 *1:107 *331:47 9.39e-06
453 *1:108 *331:41 9.39e-06
454 *1:108 *331:47 6.575e-05
455 *1:109 *331:41 6.575e-05
456 *1:109 *331:31 0.00036633
457 *1:110 *331:32 0.00036633
458 *1:110 *331:31 0.0001315
459 *1:111 *331:32 0.0001315
460 *1:127 *331:29 4.896e-05
461 *1:128 *331:30 4.896e-05
462 *1:82 *331:21 2.59e-06
463 *1:148 *331:22 2.59e-06
464 *1:77 *331:21 1.275e-05
465 *1:78 *331:22 1.2750001e-05
466 *1:181 *308:30 1.854e-05
467 *1:182 *308:31 1.854e-05
468 *1:182 *308:30 0.00012361
469 *1:183 *308:31 0.00012361
470 *1:183 *308:30 0.00012361
471 *1:198 *308:31 0.00012361
472 *1:198 *308:30 1.236e-05
473 *1:222 *308:31 1.236e-05
474 *1:223 *308:31 9.271e-05
475 *1:224 *308:32 9.271e-05
476 *1:223 *308:32 1.236e-05
477 *1:224 *308:44 1.236e-05
478 *1:159 *308:30 4.69e-06
479 *1:160 *308:31 4.69e-06
480 *1:230 *308:32 9.37e-06
481 *1:231 *308:44 9.37e-06
482 *1:100 *308:54 5.18e-06
483 *1:101 *308:53 5.18e-06
484 *1:98 *308:52 5.04e-06
485 *1:208 *308:42 5.04e-06
486 *1:98 *308:42 3.78e-06
487 *1:208 *308:43 3.78e-06
488 *1:75 *308:11 7.139e-05
489 *1:76 *308:12 7.139e-05
490 *1:76 *308:11 8.92e-06
491 *1:237 *308:12 8.91997433e-06
492 *1:107 *281:64 7.58e-06
493 *1:108 *281:63 7.58e-06
494 *1:107 *281:63 6.82e-05
495 *1:108 *281:57 6.82e-05
496 *1:107 *281:57 5.684e-05
497 *1:108 *281:49 5.684e-05
498 *1:108 *281:57 2.652e-05
499 *1:109 *281:49 2.652e-05
500 *1:110 *281:42 1.91e-05
501 *1:111 *281:39 1.91e-05
502 *1:112 *281:64 1.137e-05
503 *1:113 *281:63 1.137e-05
504 *1:113 *281:64 3.79e-06
505 *1:114 *281:63 3.79e-06
506 *1:115 *281:57 3.031e-05
507 *1:116 *281:49 3.031e-05
508 *1:117 *281:48 8.902e-05
509 *1:105 *281:42 8.902e-05
510 *1:105 *281:48 1.406e-05
511 *1:106 *281:42 1.406e-05
512 *1:118 *281:42 3.28e-05
513 *1:119 *281:39 3.28e-05
514 *1:103 *281:57 2.476e-05
515 *1:104 *281:49 2.476e-05
516 *1:95 *281:34 2.677e-05
517 *1:90 *281:35 2.677e-05
518 *1:90 *281:34 8.92e-06
519 *1:91 *281:35 8.92e-06
520 *1:120 *281:45 8.031e-05
521 *1:121 *281:43 8.031e-05
522 *1:121 *281:45 8.031e-05
523 *1:122 *281:43 8.031e-05
524 *1:120 *281:41 8.031e-05
525 *1:121 *281:40 8.03100076e-05

*RES
1 *1:363 *522:CK 3.34996
2 *1:291 *1:363 0.552891
3 *1:169 *1:363 3.34996
4 *1:170 *1:169 0.971266
5 *1:351 *491:CK 3.34996
6 *1:281 *1:351 0.552891
7 *1:92 *1:170 3.34996
8 *1:127 *363:CK 3.34996
9 *1:355 *364:CK 3.34996
10 *1:155 *1:351 3.34996
11 *1:93 *523:CK 3.34996
12 *1:93 *1:92 3.69125
13 *1:344 *480:CK 3.34996
14 *1:274 *1:344 0.552891
15 *1:128 *1:127 5.07571
16 *1:128 *1:355 0.485818
17 *1:163 *457:CK 3.34996
18 *1:156 *1:155 4.37125
19 *1:236 *481:CK 3.34996
20 *362:CK *1:96 4.8
21 *1:94 *381:CK 3.34996
22 *1:94 *1:93 4.61435
23 *1:142 *1:344 3.34996
24 *1:140 *1:128 3.34996
25 *1:163 *1:162 0.46136
26 *1:164 *1:156 3.34996
27 *1:164 *1:236 3.22989
28 *1:356 *390:CK 3.34996
29 *1:285 *1:356 0.552891
30 *1:95 *1:96 3.34996
31 *1:95 *1:94 11.9972
32 *1:142 *1:141 4.37125
33 *1:141 *1:140 9.22869
34 *1:162 *1:87 0.485818
35 *1:87 *1:164 4.15298
36 *1:357 *1:356 3.34996
37 *1:286 *1:357 0.552891
38 *1:90 *380:CK 3.34996
39 *1:90 *1:95 4.15298
40 *1:179 *415:CK 3.34996
41 *1:88 *1:141 3.34996
42 *1:88 *1:87 9.22869
43 *1:227 *1:357 3.34996
44 *1:91 *1:90 0.46136
45 *1:180 *416:CK 3.34996
46 *1:295 *1:180 0.552891
47 *1:180 *1:179 4.61435
48 *458:CK *1:89 0.599954
49 *1:135 *456:CK 3.34996
50 *1:135 *1:88 3.22989
51 *1:227 *1:226 3.22989
52 *1:181 *1:91 3.34996
53 *1:340 *463:CK 3.34996
54 *1:269 *1:340 0.552891
55 *1:343 *421:CK 3.34996
56 *1:273 *1:343 0.552891
57 *1:166 *524:CK 3.34996
58 *1:368 *373:CK 3.34996
59 *1:297 *1:368 0.552891
60 *1:229 *1:180 3.34996
61 *1:136 *1:89 3.34996
62 *1:136 *1:135 4.61435
63 *1:354 *490:CK 3.34996
64 *1:284 *1:354 0.552891
65 *1:182 *1:226 3.34996
66 *1:182 *1:181 1.45708
67 *1:342 *379:CK 3.34996
68 *1:272 *1:342 0.552891
69 *1:158 *1:340 3.34996
70 *1:161 *1:343 3.34996
71 *1:167 *1:166 0.46136
72 *1:130 *1:368 3.34996